@<TRIPOS>MOLECULE
*****
   19    19     0     0     0
SMALL
USER_CHARGES

@<TRIPOS>ATOM
      1 C1         -0.8576   -2.3754    3.1485 C.2       1 UNL1        0.6636
      2 C2         -0.1848   -1.0587   -0.2182 C.3       1 UNL1       -0.0946
      3 C3          1.0829   -1.8649    0.0355 C.3       1 UNL1       -0.0912
      4 C4         -1.1613   -1.6371    0.7942 C.3       1 UNL1        0.0983
      5 C5          1.0860   -2.0286    1.5489 C.3       1 UNL1        0.0984
      6 C6          0.1446   -2.7768    4.2009 C.3       1 UNL1       -0.1654
      7 N1         -0.3265   -2.0398    1.9165 N.am      1 UNL1       -0.4883
      8 O1         -2.0624   -2.3650    3.4059 O.2       1 UNL1       -0.6179
      9 H1         -0.0058    0.0028   -0.0104 H         1 UNL1        0.0512
     10 H2         -0.5412   -1.1566   -1.2474 H         1 UNL1        0.0569
     11 H3          1.0115   -2.8443   -0.4519 H         1 UNL1        0.0531
     12 H4          1.9792   -1.3578   -0.3322 H         1 UNL1        0.0546
     13 H5         -1.9256   -0.9219    1.1125 H         1 UNL1        0.0627
     14 H6         -1.6564   -2.5352    0.4087 H         1 UNL1        0.0489
     15 H7          1.5858   -2.9455    1.8724 H         1 UNL1        0.0430
     16 H8          1.5539   -1.1705    2.0433 H         1 UNL1        0.0355
     17 H9          0.4578   -1.8938    4.7483 H         1 UNL1        0.0656
     18 H10         1.0012   -3.2373    3.7190 H         1 UNL1        0.0505
     19 H11        -0.3169   -3.4885    4.8780 H         1 UNL1        0.0752
@<TRIPOS>BOND
     1    1    6 1
     2    1    7 am
     3    1    8 2
     4    2    3 1
     5    2    4 1
     6    3    5 1
     7    4    7 1
     8    5    7 1
     9    2    9 1
    10    2   10 1
    11    3   11 1
    12    3   12 1
    13    4   13 1
    14    4   14 1
    15    5   15 1
    16    5   16 1
    17    6   17 1
    18    6   18 1
    19    6   19 1
