@<TRIPOS>MOLECULE
*****
   10     9     0     0     0
SMALL
USER_CHARGES

@<TRIPOS>ATOM
      1 C1          2.4896    0.1380   -1.3857 C.2       1 UNL1        0.9076
      2 C2          0.8445   -0.4935    0.4924 C.3       1 UNL1       -0.0618
      3 C3          1.8687   -0.9635   -0.5222 C.3       1 UNL1       -0.1981
      4 O1          3.3752   -0.2208   -2.2093 O.co2     1 UNL1       -0.8592
      5 O2          2.0254    1.2932   -1.1603 O.co2     1 UNL1       -0.8530
      6 H1          1.2789    0.2383    1.1814 H         1 UNL1        0.0307
      7 H2         -0.0136   -0.0259   -0.0017 H         1 UNL1        0.0254
      8 H3          0.4773   -1.3392    1.0824 H         1 UNL1       -0.0255
      9 H4          1.3988   -1.6929   -1.1925 H         1 UNL1        0.0169
     10 H5          2.6816   -1.4790    0.0029 H         1 UNL1        0.0169
@<TRIPOS>BOND
     1    1    3 1
     2    1    4 1
     3    1    5 2
     4    2    3 1
     5    2    6 1
     6    2    7 1
     7    2    8 1
     8    3    9 1
     9    3   10 1
