@<TRIPOS>MOLECULE
*****
   19    18     0     0     0
SMALL
USER_CHARGES

@<TRIPOS>ATOM
      1 C1          4.0015    1.0379   -3.4831 C.cat     1 UNL1        0.5210
      2 C2          0.9359    0.0594   -0.5970 C.3       1 UNL1       -0.1072
      3 C3          1.2282    1.5173   -0.9225 C.3       1 UNL1       -0.0978
      4 C4          2.6189    1.7221   -1.5111 C.3       1 UNL1        0.0184
      5 N1          4.1224    0.3265   -4.6723 N.pl3     1 UNL1       -0.5106
      6 N2          2.8015    1.0088   -2.7448 N.pl3     1 UNL1       -0.3811
      7 N3          5.0832    1.7830   -3.0256 N.pl3     1 UNL1       -0.5190
      8 H1          1.0102   -0.5649   -1.4931 H         1 UNL1        0.0257
      9 H2          1.6573   -0.3145    0.1366 H         1 UNL1        0.0524
     10 H3         -0.0660   -0.0619   -0.1741 H         1 UNL1        0.0727
     11 H4          1.1434    2.1056   -0.0015 H         1 UNL1        0.0893
     12 H5          0.4666    1.8909   -1.6173 H         1 UNL1        0.0668
     13 H6          2.7814    2.7826   -1.7277 H         1 UNL1        0.0665
     14 H7          3.3972    1.3933   -0.8153 H         1 UNL1        0.0674
     15 H8          3.3485   -0.2281   -5.0302 H         1 UNL1        0.3262
     16 H9          4.9798    0.3340   -5.2184 H         1 UNL1        0.3272
     17 H10         2.0404    0.4382   -3.1419 H         1 UNL1        0.3270
     18 H11         5.9575    1.8160   -3.5444 H         1 UNL1        0.3271
     19 H12         5.0285    2.3147   -2.1602 H         1 UNL1        0.3279
@<TRIPOS>BOND
     1    1    5 1
     2    1    6 1
     3    1    7 2
     4    2    3 1
     5    3    4 1
     6    4    6 1
     7    2    8 1
     8    2    9 1
     9    2   10 1
    10    3   11 1
    11    3   12 1
    12    4   13 1
    13    4   14 1
    14    5   15 1
    15    5   16 1
    16    6   17 1
    17    7   18 1
    18    7   19 1
