@<TRIPOS>MOLECULE
*****
   12    12     0     0     0
SMALL
USER_CHARGES

@<TRIPOS>ATOM
      1 C1          1.9499   -0.7740   -0.8259 C.2       1 UNL1        0.2919
      2 C2          1.3133   -2.8020   -0.9371 C.2       1 UNL1        0.3830
      3 C3          0.6549   -0.7784   -0.3640 C.2       1 UNL1       -0.2139
      4 C4         -0.2258    0.2905    0.1296 C.3       1 UNL1       -0.0235
      5 N1          2.3537   -2.0366   -1.1813 N.2       1 UNL1       -0.6648
      6 N2          0.2603   -2.0844   -0.4416 N.pl3     1 UNL1       -0.3186
      7 H1          2.6143    0.0731   -0.9217 H         1 UNL1        0.0410
      8 H2          1.2569   -3.8697   -1.0947 H         1 UNL1        0.0593
      9 H3         -0.8089    0.7437   -0.6916 H         1 UNL1        0.0495
     10 H4         -0.9466   -0.0746    0.8841 H         1 UNL1        0.0403
     11 H5          0.3378    1.1041    0.6226 H         1 UNL1        0.0576
     12 H6         -0.6437   -2.4555   -0.1799 H         1 UNL1        0.2982
@<TRIPOS>BOND
     1    1    3 2
     2    1    5 1
     3    2    5 2
     4    2    6 1
     5    3    4 1
     6    3    6 1
     7    1    7 1
     8    2    8 1
     9    4    9 1
    10    4   10 1
    11    4   11 1
    12    6   12 1
